MODEL 1
REMARK VINA RESULT:      -8.2      0.000      0.000
REMARK  4 active torsions:
REMARK  status: ('A' for Active; 'I' for Inactive)
REMARK    1  A    between atoms: C3_3  and  C4_4 
REMARK    2  A    between atoms: C7_10  and  N1_11 
REMARK       I    between atoms: N1_11  and  C8_12 
REMARK    3  A    between atoms: C8_12  and  C9_14 
REMARK    4  A    between atoms: C9_14  and  C10_15 
ROOT
HETATM    1  N1  UNL     1      -7.704 -19.190  12.633  1.00  0.00    -0.325 N 
HETATM    2  C8  UNL     1      -8.601 -19.287  11.510  1.00  0.00     0.240 C 
HETATM    3  O1  UNL     1      -9.815 -18.980  11.665  1.00  0.00    -0.272 OA
HETATM    4  H6  UNL     1      -6.790 -19.693  12.587  1.00  0.00     0.169 HD
ENDROOT
BRANCH   1   5
HETATM    5  C7  UNL     1      -8.026 -18.471  13.836  1.00  0.00     0.057 A 
HETATM    6  C6  UNL     1      -7.665 -17.126  13.963  1.00  0.00     0.032 A 
HETATM    7  C5  UNL     1      -7.917 -16.432  15.142  1.00  0.00     0.019 A 
HETATM    8  C3  UNL     1      -8.538 -17.060  16.235  1.00  0.00     0.055 A 
HETATM    9  C2  UNL     1      -8.961 -18.414  16.103  1.00  0.00    -0.023 A 
HETATM   10  C1  UNL     1      -9.665 -19.133  17.234  1.00  0.00     0.051 C 
HETATM   11  C15 UNL     1      -8.657 -19.123  14.912  1.00  0.00     0.067 A 
HETATM   12 CL1  UNL     1      -9.084 -20.833  14.744  1.00  0.00    -0.081 Cl
BRANCH   8  13
HETATM   13  C4  UNL     1      -8.767 -16.265  17.510  1.00  0.00     0.418 C 
HETATM   14  F1  UNL     1     -10.116 -16.116  17.788  1.00  0.00    -0.166 F 
HETATM   15  F2  UNL     1      -8.177 -16.921  18.575  1.00  0.00    -0.166 F 
HETATM   16  F3  UNL     1      -8.223 -14.999  17.388  1.00  0.00    -0.166 F 
ENDBRANCH   8  13
ENDBRANCH   1   5
BRANCH   2  17
HETATM   17  C9  UNL     1      -8.119 -19.859  10.174  1.00  0.00     0.142 C 
HETATM   18  C11 UNL     1      -6.762 -20.613  10.351  1.00  0.00     0.055 C 
HETATM   19  C12 UNL     1      -7.006 -22.072  10.775  1.00  0.00     0.169 C 
HETATM   20  O2  UNL     1      -7.731 -22.847   9.824  1.00  0.00    -0.391 OA
HETATM   21  C13 UNL     1      -8.538 -22.078   8.942  1.00  0.00     0.169 C 
HETATM   22  C14 UNL     1      -9.187 -20.861   9.621  1.00  0.00     0.055 C 
BRANCH  17  23
HETATM   23  C10 UNL     1      -7.915 -18.676   9.187  1.00  0.00     0.404 C 
HETATM   24  F4  UNL     1      -7.908 -17.469   9.865  1.00  0.00    -0.170 F 
HETATM   25  F5  UNL     1      -6.714 -18.797   8.509  1.00  0.00    -0.170 F 
HETATM   26  F6  UNL     1      -8.940 -18.649   8.255  1.00  0.00    -0.170 F 
ENDBRANCH  17  23
ENDBRANCH   2  17
TORSDOF 4
ENDMDL
