@<TRIPOS>MOLECULE
ATP.pdb
 35 37 0 0 0
SMALL
GASTEIGER

@<TRIPOS>ATOM
      1  C4'       41.0340   18.9780   14.0300 C.3   501  ATP501      0.1764
      2  O4'       41.0420   20.0830   13.1380 O.3   501  ATP501     -0.3308
      3  C3'       40.3820   19.5680   15.2680 C.3   501  ATP501      0.1713
      4  C2'       40.9730   20.9670   15.3420 C.3   501  ATP501      0.1895
      5  C1'       41.3430   21.2650   13.8920 C.3   501  ATP501      0.2371
      6  N9        40.6020   22.3540   13.2400 N.ar  501  ATP501     -0.2694
      7  C4        39.2670   22.5690   13.2440 C.ar  501  ATP501      0.1690
      8  N3        38.2970   21.9030   13.9090 N.ar  501  ATP501     -0.2048
      9  C5        39.0580   23.6790   12.4180 C.ar  501  ATP501      0.1481
     10  C2        37.0570   22.4010   13.7400 C.ar  501  ATP501      0.2015
     11  N1        36.7600   23.4580   12.9350 N.ar  501  ATP501     -0.2078
     12  C6        37.7440   24.1210   12.2640 C.ar  501  ATP501      0.1480
     13  N7        40.2490   24.1450   11.9420 N.ar  501  ATP501     -0.2194
     14  C8        41.1710   23.3100   12.4420 C.ar  501  ATP501      0.1816
     15  N6        37.3820   25.1030   11.4300 N.pl3 501  ATP501     -0.3413
     16  H62       38.1180   25.5990   10.9280 H     501  ATP501      0.1438
     17  H61       36.4210   25.4260   11.3170 H     501  ATP501      0.1438
     18  O2'       42.1170   20.9930   16.1720 O.3   501  ATP501     -0.3779
     19  H2'       42.4860   21.8670   16.2180 H     501  ATP501      0.2106
     20  O3'       40.5750   18.8030   16.4260 O.3   501  ATP501     -0.3794
     21  H3'       40.2060   17.9290   16.3800 H     501  ATP501      0.2105
     22  C5'       40.2280   17.8310   13.4740 C.3   501  ATP501      0.1811
     23  O5'       40.7610   17.4210   12.2300 O.3   501  ATP501     -0.3112
     24  PA        41.4410   16.0040   12.0240 P.3   501  ATP501      0.2189
     25  O2A       40.5730   14.9110   12.5970 O.3   501  ATP501     -0.4371
     26  O1A       41.8680   15.9770   10.6070 O.2   501  ATP501     -0.5170
     27  O3A       42.7200   16.0730   13.0040 O.3   501  ATP501     -0.2700
     28  PB        44.1660   16.6690   12.6400 P.3   501  ATP501      0.2277
     29  O1B       44.8460   15.7670   11.6960 O.2   501  ATP501     -0.5168
     30  O2B       44.0150   18.0920   12.2140 O.3   501  ATP501     -0.4368
     31  O3B       44.8070   16.5620   14.0920 O.3   501  ATP501     -0.2258
     32  PG        46.0340   17.4420   14.6490 P.3   501  ATP501      0.5373
     33  O2G       47.0120   16.4400   15.2140 O.3   501  ATP501     -0.1143
     34  O3G       45.4150   18.2890   15.7590 O.3   501  ATP501     -0.1143
     35  O1G       46.5540   18.2510   13.4860 O.2   501  ATP501     -0.2221
@<TRIPOS>BOND
     1     1     2    1
     2     1    22    1
     3     1     3    1
     4     2     5    1
     5     3     4    1
     6     3    20    1
     7     4     5    1
     8     4    18    1
     9     5     6    1
    10     6    14   ar
    11     6     7   ar
    12     7     9   ar
    13     7     8   ar
    14     8    10   ar
    15     9    13   ar
    16     9    12   ar
    17    10    11   ar
    18    11    12   ar
    19    12    15    1
    20    13    14   ar
    21    15    16    1
    22    15    17    1
    23    18    19    1
    24    20    21    1
    25    22    23    1
    26    23    24    1
    27    24    26    2
    28    24    25    1
    29    24    27    1
    30    27    28    1
    31    28    29    2
    32    28    30    1
    33    28    31    1
    34    31    32    1
    35    32    35    2
    36    32    33    1
    37    32    34    1
